network/Integrated/Transformers.txt
New Transformer.TR1 Buses=[SourceBus 1] Conns=[Delta Wye] kVs=[33 11] kVAs=[10500 10500] XHL=4 sub=y
!New Transformer.TR2 Buses=[SourceBus 1] Conns=[Delta Wye] kVs=[33 11] kVAs=[10500 10500] XHL=4 sub=y

New Transformer.TR3 Buses=[1 11] Conns=[Delta Wye] kVs=[11 0.416] kVAs=[800 800] XHL=4 sub=y
New Transformer.TR4 Buses=[2 21] Conns=[Delta Wye] kVs=[11 0.416] kVAs=[800 800] XHL=4 sub=y

!New Transformer.TR1 Buses=[SourceBus 11] Conns=[Delta Wye] kVs=[11 0.416] kVAs=[800 800] XHL=1


